
     RDKit          3D

 57 60  0  0  0  0  0  0  0  0999 V2000
    0.2339    1.2988  -11.4009 C   0  0  0  0  0  0  0  0  0  0  0  0
   -0.4227    0.5155  -12.3838 O   0  0  0  0  0  0  0  0  0  0  0  0
   -1.6882    0.9374  -12.7826 C   0  0  0  0  0  0  0  0  0  0  0  0
   -2.3020    2.0617  -12.2638 C   0  0  0  0  0  0  0  0  0  0  0  0
   -3.5649    2.4596  -12.6795 C   0  0  0  0  0  0  0  0  0  0  0  0
   -4.2534    1.7426  -13.6296 C   0  0  0  0  0  0  0  0  0  0  0  0
   -3.6529    0.6164  -14.1575 C   0  0  0  0  0  0  0  0  0  0  0  0
   -2.3899    0.2192  -13.7410 C   0  0  0  0  0  0  0  0  0  0  0  0
   -1.7770   -0.9042  -14.2596 O   0  0  0  0  0  0  0  0  0  0  0  0
   -2.4281   -1.7015  -15.2506 C   0  0  0  0  0  0  0  0  0  0  0  0
   -5.5530    2.3798  -13.8827 C   0  0  0  0  0  0  0  0  0  0  0  0
   -6.5192    1.8031  -14.4151 O   0  0  0  0  0  0  0  0  0  0  0  0
   -5.4381    3.7925  -13.3790 C   0  0  1  0  0  0  0  0  0  0  0  0
   -6.7629    4.2363  -12.7786 C   0  0  0  0  0  0  0  0  0  0  0  0
   -6.7078    5.6346  -12.2601 C   0  0  0  0  0  0  0  0  0  0  0  0
   -8.0909    5.9503  -11.6870 C   0  0  0  0  0  0  0  0  0  0  0  0
   -8.2108    7.4560  -11.4690 C   0  0  0  0  0  0  0  0  0  0  0  0
   -8.3434    8.0800  -12.7479 N   0  0  0  0  0  0  0  0  0  0  0  0
   -8.1455    9.4967  -12.6743 C   0  0  0  0  0  0  0  0  0  0  0  0
   -9.1730   10.0847  -11.7801 C   0  0  0  0  0  0  0  0  0  0  0  0
   -8.8789   11.1853  -11.0120 C   0  0  0  0  0  0  0  0  0  0  0  0
   -9.8277   11.7412  -10.1818 C   0  0  0  0  0  0  0  0  0  0  0  0
  -11.0852   11.2112  -10.1020 C   0  0  0  0  0  0  0  0  0  0  0  0
  -11.3771   10.1163  -10.8665 C   0  0  0  0  0  0  0  0  0  0  0  0
  -10.4434    9.5529  -11.6967 C   0  0  0  0  0  0  0  0  0  0  0  0
   -7.6019    7.4256  -13.7904 C   0  0  0  0  0  0  0  0  0  0  0  0
   -6.3891    6.6808  -13.2748 C   0  0  0  0  0  0  0  0  0  0  0  0
   -4.4170    3.6061  -12.2791 C   0  0  0  0  0  0  0  0  0  0  0  0
    1.2169    0.8905  -11.1205 H   0  0  0  0  0  0  0  0  0  0  0  0
   -0.4538    1.3736  -10.5354 H   0  0  0  0  0  0  0  0  0  0  0  0
    0.3222    2.3380  -11.8174 H   0  0  0  0  0  0  0  0  0  0  0  0
   -1.7456    2.6249  -11.5087 H   0  0  0  0  0  0  0  0  0  0  0  0
   -4.2004    0.0590  -14.9031 H   0  0  0  0  0  0  0  0  0  0  0  0
   -3.5072   -1.8594  -14.9780 H   0  0  0  0  0  0  0  0  0  0  0  0
   -1.9870   -2.6977  -15.3322 H   0  0  0  0  0  0  0  0  0  0  0  0
   -2.4052   -1.1445  -16.1993 H   0  0  0  0  0  0  0  0  0  0  0  0
   -5.0765    4.4569  -14.1736 H   0  0  0  0  0  0  0  0  0  0  0  0
   -7.5916    4.1006  -13.5051 H   0  0  0  0  0  0  0  0  0  0  0  0
   -6.9772    3.5656  -11.9215 H   0  0  0  0  0  0  0  0  0  0  0  0
   -6.0133    5.6546  -11.3755 H   0  0  0  0  0  0  0  0  0  0  0  0
   -8.2281    5.4229  -10.7281 H   0  0  0  0  0  0  0  0  0  0  0  0
   -8.8313    5.6738  -12.4559 H   0  0  0  0  0  0  0  0  0  0  0  0
   -7.3272    7.8546  -10.9311 H   0  0  0  0  0  0  0  0  0  0  0  0
   -9.1263    7.6248  -10.8816 H   0  0  0  0  0  0  0  0  0  0  0  0
   -7.1482    9.7604  -12.2250 H   0  0  0  0  0  0  0  0  0  0  0  0
   -8.1893    9.9769  -13.6720 H   0  0  0  0  0  0  0  0  0  0  0  0
   -7.9016   11.6489  -11.0324 H   0  0  0  0  0  0  0  0  0  0  0  0
   -9.6137   12.6126   -9.5660 H   0  0  0  0  0  0  0  0  0  0  0  0
  -11.8451   11.6429   -9.4478 H   0  0  0  0  0  0  0  0  0  0  0  0
  -12.3781    9.6991  -10.7990 H   0  0  0  0  0  0  0  0  0  0  0  0
  -10.7390    8.6748  -12.2890 H   0  0  0  0  0  0  0  0  0  0  0  0
   -8.2653    6.7497  -14.3719 H   0  0  0  0  0  0  0  0  0  0  0  0
   -7.2433    8.1923  -14.4969 H   0  0  0  0  0  0  0  0  0  0  0  0
   -5.7398    7.4458  -12.7628 H   0  0  0  0  0  0  0  0  0  0  0  0
   -5.8224    6.3458  -14.1480 H   0  0  0  0  0  0  0  0  0  0  0  0
   -4.9677    3.3160  -11.3576 H   0  0  0  0  0  0  0  0  0  0  0  0
   -3.8244    4.5248  -12.0984 H   0  0  0  0  0  0  0  0  0  0  0  0
  1  2  1  0
  2  3  1  0
  3  4  2  0
  4  5  1  0
  5  6  2  0
  6  7  1  0
  7  8  2  0
  8  9  1  0
  9 10  1  0
  6 11  1  0
 11 12  2  0
 11 13  1  0
 13 14  1  0
 14 15  1  0
 15 16  1  0
 16 17  1  0
 17 18  1  0
 18 19  1  0
 19 20  1  0
 20 21  2  0
 21 22  1  0
 22 23  2  0
 23 24  1  0
 24 25  2  0
 18 26  1  0
 26 27  1  0
 13 28  1  0
  8  3  1  0
 27 15  1  0
 28  5  1  0
 25 20  1  0
  1 29  1  0
  1 30  1  0
  1 31  1  0
  4 32  1  0
  7 33  1  0
 10 34  1  0
 10 35  1  0
 10 36  1  0
 13 37  1  6
 14 38  1  0
 14 39  1  0
 15 40  1  0
 16 41  1  0
 16 42  1  0
 17 43  1  0
 17 44  1  0
 19 45  1  0
 19 46  1  0
 21 47  1  0
 22 48  1  0
 23 49  1  0
 24 50  1  0
 25 51  1  0
 26 52  1  0
 26 53  1  0
 27 54  1  0
 27 55  1  0
 28 56  1  0
 28 57  1  0
M  END
$$$$
