
     RDKit          3D

 53 56  0  0  0  0  0  0  0  0999 V2000
    8.2589    4.0637    0.7229 C   0  0  0  0  0  0  0  0  0  0  0  0
    8.1295    3.5122   -0.6537 C   0  0  0  0  0  0  0  0  0  0  0  0
    7.7474    2.0731   -0.5810 C   0  0  0  0  0  0  0  0  0  0  0  0
    8.4560    0.9339   -0.3067 C   0  0  0  0  0  0  0  0  0  0  0  0
    7.7858   -0.2299   -0.3357 C   0  0  0  0  0  0  0  0  0  0  0  0
    8.2656   -1.5353   -0.1217 C   0  0  0  0  0  0  0  0  0  0  0  0
    7.3906   -2.5810   -0.2289 N   0  0  0  0  0  0  0  0  0  0  0  0
    6.1069   -2.5029   -0.5188 C   0  0  0  0  0  0  0  0  0  0  0  0
    5.6286   -1.2715   -0.7265 N   0  0  0  0  0  0  0  0  0  0  0  0
    6.4679   -0.2021   -0.6300 C   0  0  0  0  0  0  0  0  0  0  0  0
    6.1420    1.5104   -0.8773 S   0  0  0  0  0  0  0  0  0  0  0  0
    9.6002   -1.8546    0.2281 N   0  0  0  0  0  0  0  0  0  0  0  0
    9.9562   -3.2474    0.3511 C   0  0  2  0  0  0  0  0  0  0  0  0
   11.3025   -3.5372    0.8895 C   0  0  0  0  0  0  0  0  0  0  0  0
   11.5836   -3.0755    2.2503 C   0  0  0  0  0  0  0  0  0  0  0  0
   12.1447   -1.8583    2.5170 C   0  0  0  0  0  0  0  0  0  0  0  0
   12.3901   -1.4924    3.8294 C   0  0  0  0  0  0  0  0  0  0  0  0
   12.0798   -2.3316    4.8898 C   0  0  0  0  0  0  0  0  0  0  0  0
   11.5167   -3.5490    4.5997 C   0  0  0  0  0  0  0  0  0  0  0  0
   11.2648   -3.9338    3.3107 C   0  0  0  0  0  0  0  0  0  0  0  0
    9.7233   -3.9545   -0.9588 C   0  0  0  0  0  0  0  0  0  0  0  0
    9.2889   -3.3115   -1.9453 O   0  0  0  0  0  0  0  0  0  0  0  0
    9.9838   -5.3096   -1.0874 O   0  0  0  0  0  0  0  0  0  0  0  0
    9.9020    1.1793   -0.0331 C   0  0  0  0  0  0  0  0  0  0  0  0
   10.7246    1.1630   -1.1557 C   0  0  0  0  0  0  0  0  0  0  0  0
   12.0632    1.4337   -0.9913 C   0  0  0  0  0  0  0  0  0  0  0  0
   12.5647    1.7132    0.2603 C   0  0  0  0  0  0  0  0  0  0  0  0
   11.7128    1.7207    1.3610 C   0  0  0  0  0  0  0  0  0  0  0  0
   10.3751    1.4531    1.2265 C   0  0  0  0  0  0  0  0  0  0  0  0
    9.5018    1.4518    2.4158 C   0  0  0  0  0  0  0  0  0  0  0  0
   12.4280    2.1120    2.8929 Cl  0  0  0  0  0  0  0  0  0  0  0  0
    9.3031    4.1374    1.0761 H   0  0  0  0  0  0  0  0  0  0  0  0
    7.8347    5.0952    0.7295 H   0  0  0  0  0  0  0  0  0  0  0  0
    7.6314    3.4423    1.4104 H   0  0  0  0  0  0  0  0  0  0  0  0
    9.0964    3.6493   -1.1782 H   0  0  0  0  0  0  0  0  0  0  0  0
    7.3981    4.1012   -1.2410 H   0  0  0  0  0  0  0  0  0  0  0  0
    5.4679   -3.3887   -0.5864 H   0  0  0  0  0  0  0  0  0  0  0  0
   10.3106   -1.1770    0.3941 H   0  0  0  0  0  0  0  0  0  0  0  0
    9.2080   -3.6886    1.0727 H   0  0  0  0  0  0  0  0  0  0  0  0
   12.0836   -3.0421    0.2366 H   0  0  0  0  0  0  0  0  0  0  0  0
   11.5506   -4.6254    0.8620 H   0  0  0  0  0  0  0  0  0  0  0  0
   12.4129   -1.1480    1.7198 H   0  0  0  0  0  0  0  0  0  0  0  0
   12.8379   -0.5427    4.0954 H   0  0  0  0  0  0  0  0  0  0  0  0
   12.2812   -2.0227    5.9090 H   0  0  0  0  0  0  0  0  0  0  0  0
   11.2786   -4.1962    5.4422 H   0  0  0  0  0  0  0  0  0  0  0  0
   10.8194   -4.9054    3.1399 H   0  0  0  0  0  0  0  0  0  0  0  0
   10.2646   -5.7135   -1.9885 H   0  0  0  0  0  0  0  0  0  0  0  0
   10.3512    0.9462   -2.1457 H   0  0  0  0  0  0  0  0  0  0  0  0
   12.7410    1.4296   -1.8519 H   0  0  0  0  0  0  0  0  0  0  0  0
   13.6220    1.9196    0.3379 H   0  0  0  0  0  0  0  0  0  0  0  0
    8.4971    1.0245    2.1815 H   0  0  0  0  0  0  0  0  0  0  0  0
    9.9015    0.8231    3.2415 H   0  0  0  0  0  0  0  0  0  0  0  0
    9.3907    2.4766    2.8684 H   0  0  0  0  0  0  0  0  0  0  0  0
  1  2  1  0
  2  3  1  0
  3  4  2  0
  4  5  1  0
  5  6  2  0
  6  7  1  0
  7  8  2  0
  8  9  1  0
  9 10  2  0
 10 11  1  0
  6 12  1  0
 12 13  1  0
 13 14  1  0
 14 15  1  0
 15 16  2  0
 16 17  1  0
 17 18  2  0
 18 19  1  0
 19 20  2  0
 13 21  1  0
 21 22  2  0
 21 23  1  0
  4 24  1  0
 24 25  2  0
 25 26  1  0
 26 27  2  0
 27 28  1  0
 28 29  2  0
 29 30  1  0
 28 31  1  0
 11  3  1  0
 10  5  1  0
 20 15  1  0
 29 24  1  0
  1 32  1  0
  1 33  1  0
  1 34  1  0
  2 35  1  0
  2 36  1  0
  8 37  1  0
 12 38  1  0
 13 39  1  1
 14 40  1  0
 14 41  1  0
 16 42  1  0
 17 43  1  0
 18 44  1  0
 19 45  1  0
 20 46  1  0
 23 47  1  0
 25 48  1  0
 26 49  1  0
 27 50  1  0
 30 51  1  0
 30 52  1  0
 30 53  1  0
M  END
$$$$
