
     RDKit          3D

 28 30  0  0  0  0  0  0  0  0999 V2000
    4.4030   15.5280   26.5790 C   0  0  0  0  0  0  0  0  0  0  0  0
    5.1220   15.0840   25.4530 O   0  0  0  0  0  0  0  0  0  0  0  0
    5.0910   13.7860   24.8460 C   0  0  1  0  0  0  0  0  0  0  0  0
    3.9590   13.1780   24.2910 C   0  0  0  0  0  0  0  0  0  0  0  0
    6.3240   13.1530   24.7740 C   0  0  0  0  0  0  0  0  0  0  0  0
    7.4370   13.8000   25.3630 O   0  0  0  0  0  0  0  0  0  0  0  0
    7.9680   14.9820   24.7400 C   0  0  0  0  0  0  0  0  0  0  0  0
    6.4650   11.9280   24.1660 C   0  0  0  0  0  0  0  0  0  0  0  0
    7.7380   11.2760   24.1460 O   0  0  0  0  0  0  0  0  0  0  0  0
    8.1250   10.3750   23.0920 C   0  0  0  0  0  0  0  0  0  0  0  0
    5.3500   11.3260   23.6130 C   0  0  0  0  0  0  0  0  0  0  0  0
    4.1060   11.9220   23.6560 C   0  0  0  0  0  0  0  0  0  0  0  0
    2.9810   11.1340   22.9970 C   0  0  0  0  0  0  0  0  0  0  0  0
    1.7990   10.8980   23.8970 C   0  0  0  0  0  0  0  0  0  0  0  0
    0.5690   11.3430   23.6650 N   0  0  0  0  0  0  0  0  0  0  0  0
   -0.1860   10.9430   24.6660 C   0  0  0  0  0  0  0  0  0  0  0  0
   -1.5340   11.1210   24.9450 C   0  0  0  0  0  0  0  0  0  0  0  0
   -2.4390   11.8290   24.0330 N   0  0  0  0  0  0  0  0  0  0  0  0
    0.6250   10.2700   25.5670 C   0  0  0  0  0  0  0  0  0  0  0  0
    0.1180    9.7800   26.7170 N   0  0  0  0  0  0  0  0  0  0  0  0
   -1.1950    9.9850   26.9470 C   0  0  0  0  0  0  0  0  0  0  0  0
   -2.0040   10.6440   26.0890 N   0  0  0  0  0  0  0  0  0  0  0  0
    1.8540   10.2510   25.0560 N   0  0  0  0  0  0  0  0  0  0  0  0
    3.0530    9.6350   25.6380 C   0  0  0  0  0  0  0  0  0  0  0  0
    2.9130    8.1310   25.6360 C   0  0  0  0  0  0  0  0  0  0  0  0
    3.6440    7.2660   24.6120 C   0  0  0  0  0  0  0  0  0  0  0  0
    4.6650    7.8940   23.6780 C   0  0  0  0  0  0  0  0  0  0  0  0
    2.4190   14.0030   24.3670 Cl  0  0  0  0  0  0  0  0  0  0  0  0
  2  1  1  0
  3  2  1  6
  4  3  1  0
  5  3  1  0
  6  5  1  0
  7  6  1  0
  8  5  1  0
  9  8  1  0
 10  9  1  0
 11  8  1  0
 12 11  1  0
 12  4  1  0
 13 12  1  0
 14 13  1  0
 15 14  1  0
 16 15  1  0
 17 16  1  0
 18 17  1  0
 19 16  1  0
 20 19  1  0
 21 20  1  0
 22 21  1  0
 22 17  1  0
 23 19  1  0
 23 14  1  0
 24 23  1  0
 25 24  1  0
 26 25  1  0
 27 26  1  0
 28  4  1  0
M  END
$$$$
